__TEMP__/v1/PMU/v1.0/others/Paper_Nodos_Debiles/ieee14_andes_out.txt
ANDES 1.9.3
Copyright (C) 2015-2022 Hantao Cui

ANDES comes with ABSOLUTELY NO WARRANTY
Case file: ieee14_andes.xlsx
Report time: 12/28/2025 02:49:21 PM

Power flow converged in 5 iterations.
Flat-start: No

Statistics:
Buses                             14
Generators                         5
Committed Gens                     5
Loads                             14
Shunts                             0
Lines                             20
Transformers                       0
Areas                              0

EXTENDED SUMMARY:
                              P (pu)            Q (pu)

Generation                    2.0784            1.3908
Load                             2.1               0.7

BUS DATA:
                            Bus Name            Vm(pu)          Va(rad.)

1                               Bus1              1.02        -8.079e-15
2                               Bus2              1.02          0.022387
3                               Bus3              1.02          0.048632
4                               Bus4           0.98585          -0.00767
5                               Bus5            1.0091          -0.01724
6                               Bus6              1.02           -0.1324
7                               Bus7           0.84572          0.037548
8                               Bus8              1.02           0.57924
9                               Bus9           0.79575          -0.28992
10                             Bus10           0.76669           -0.4969
11                             Bus11           0.83325          -0.41905
12                             Bus12           0.88916          -0.36855
13                             Bus13           0.85842          -0.39681
14                             Bus14           0.77905          -0.48632

LINE DATA:
                           Line Name     Fr. Bus (idx)      To Bus (idx)       P From (pu)       Q From (pu)         P To (pu)         Q To (pu)

1                                  1                 1                 2          -0.18328         0.0020516           0.18328         0.0020516
2                                  2                 1                 5           0.11171          0.071172          -0.11171         -0.068494
3                                  3                 2                 3          -0.17188         0.0022556           0.17188         0.0022556
4                                  4                 2                 4           0.14413           0.16831          -0.14413          -0.15841
5                                  5                 2                 5           0.19447          0.057042          -0.19447         -0.048765
6                                  6                 3                 4           0.17812           0.11467          -0.17812          -0.10097
7                                  7                 4                 5          0.029967         -0.071908         -0.029967          0.073892
8                                  8                 4                 7         -0.029658           0.10938          0.029658         -0.092589
9                                  9                 4                 9           0.17194            0.1719          -0.17194         -0.094612
10                                10                 5                 6           0.18615        -0.0066336          -0.18615          0.028283
11                                11                 6                11            0.1891           0.17719           -0.1891         -0.095167
12                                12                 6                12           0.16697           0.12483          -0.16697         -0.071745
13                                13                 6                13           0.18007           0.15364          -0.18007         -0.085204
14                                14                 7                 8             -0.35         -0.018806              0.35           0.23707
15                                15                 7                 9           0.17034          0.061396          -0.17034        -0.0031465
16                                16                 9                10          0.098668          0.028449         -0.098668        -0.0072879
17                                17                 9                14          0.095202          0.019839         -0.095202       -0.00086128
18                                18                10                11         -0.039101         -0.038635          0.039101          0.045167
19                                19                12                13          0.016974          0.021745         -0.016974         -0.020522
20                                20                13                14          0.047045          0.055726         -0.047045         -0.046554

OTHER ALGEBRAIC VARIABLES:


q PV 2                       0.27966
q PV 3                       0.16692
q PV 4                       0.53394
q PV 5                       0.28708
q Slack 1                    0.12322
p Slack 1                   0.078427
